14
	Energy:       0.9528725
C         -0.88162        0.58201       -0.07868
C          0.65998        0.58523       -0.13456
C         -1.42186       -0.72979        0.52709
C         -1.42187        1.81573        0.67346
H         -1.08864        1.81176        1.71407
H         -2.51428        1.82450        0.66161
H         -1.07014        2.73671        0.20264
H         -1.07014       -1.59074       -0.04619
H         -2.51428       -0.73716        0.51431
H         -1.08863       -0.84513        1.56129
H          1.02490       -0.26738       -0.71203
H          1.08429        0.52742        0.87070
H          1.02490        1.49841       -0.61050
H         -1.24849        0.64158       -1.11464
