13
XYZ from PySCF
C          -0.80196        0.56908        0.14624
C           0.68413        0.58477       -0.12669
C          -1.42620       -0.74824        0.54401
C          -1.42620        1.83211        0.69238
H          -1.17488        1.96439        1.74605
H          -2.50775        1.80012        0.61447
H          -1.07176        2.70718        0.15809
H          -1.07175       -1.55630       -0.08707
H          -2.50775       -0.70753        0.47028
H          -1.17488       -1.00041        1.57557
H           0.97911       -0.26084       -0.73887
H           1.24987        0.53121        0.80494
H           0.97911        1.49499       -0.63791
